Version 4
SHEET 1 1860 680
WIRE -496 -192 -640 -192
WIRE 0 -192 -496 -192
WIRE 144 -192 0 -192
WIRE 256 -192 144 -192
WIRE 704 -192 256 -192
WIRE 944 -192 704 -192
WIRE -496 -160 -496 -192
WIRE 256 -160 256 -192
WIRE -496 -64 -496 -80
WIRE -368 -64 -496 -64
WIRE 256 -64 256 -80
WIRE 304 -64 256 -64
WIRE -496 -48 -496 -64
WIRE 256 -48 256 -64
WIRE -768 80 -832 80
WIRE -320 80 -704 80
WIRE -288 80 -320 80
WIRE -32 80 -64 80
WIRE 0 80 0 -192
WIRE 0 80 -32 80
WIRE 352 80 112 80
WIRE 384 80 352 80
WIRE 640 80 608 80
WIRE 704 80 704 -192
WIRE 704 80 640 80
WIRE -496 144 -496 32
WIRE -320 144 -496 144
WIRE -288 144 -320 144
WIRE -16 144 -64 144
WIRE 16 144 -16 144
WIRE 112 144 112 80
WIRE 112 144 96 144
WIRE 256 144 256 32
WIRE 352 144 256 144
WIRE 384 144 352 144
WIRE 640 144 608 144
WIRE 800 144 640 144
WIRE -368 208 -368 -64
WIRE -320 208 -368 208
WIRE -288 208 -320 208
WIRE -16 208 -64 208
WIRE 32 208 -16 208
WIRE 304 208 304 -64
WIRE 352 208 304 208
WIRE 384 208 352 208
WIRE 640 208 608 208
WIRE 704 208 640 208
WIRE 944 224 832 224
WIRE -640 272 -640 -192
WIRE -320 272 -640 272
WIRE -288 272 -320 272
WIRE -16 272 -64 272
WIRE 0 272 -16 272
WIRE 144 272 144 -192
WIRE 352 272 144 272
WIRE 384 272 352 272
WIRE 640 272 608 272
WIRE 672 272 640 272
WIRE -496 352 -496 144
WIRE -352 352 -496 352
WIRE 32 352 32 208
WIRE 32 352 -352 352
WIRE 256 352 256 144
WIRE 352 352 256 352
WIRE 704 352 704 208
WIRE 704 352 352 352
WIRE 352 416 352 352
WIRE -352 480 -352 352
WIRE -832 608 -832 80
WIRE -352 608 -352 544
WIRE -352 608 -832 608
WIRE 0 608 0 272
WIRE 0 608 -352 608
WIRE 352 608 352 480
WIRE 352 608 0 608
WIRE 672 608 672 272
WIRE 672 608 352 608
WIRE 832 608 832 224
WIRE 832 608 672 608
FLAG 352 608 0
FLAG 976 -192 0
FLAG -16 272 1_U1
FLAG -320 272 8_U1
FLAG -320 208 7_U1
FLAG -320 144 6_U1
FLAG -320 80 5_U1
FLAG -32 80 4_U1
FLAG -16 144 3_U1
FLAG -16 208 2_U1
FLAG 352 80 5_U2
FLAG 352 144 6_U2
FLAG 352 208 7_U2
FLAG 640 272 1_U2
FLAG 640 208 2_U2
FLAG 640 144 3_U2
FLAG 640 80 4_U2
FLAG 352 272 8_U2
SYMBOL SBORKA\\TIMER\\555_ -176 176 R0
SYMATTR InstName U1
SYMBOL SBORKA\\TIMER\\555_ 496 176 R0
SYMATTR InstName U2
SYMBOL MiniSyms4\\voltage- 960 -192 R270
WINDOW 0 10 0 VTop 2
WINDOW 3 -10 0 VBottom 2
WINDOW 123 0 0 Left 0
WINDOW 39 0 0 Left 0
SYMATTR InstName Vin
SYMATTR Value 9
SYMBOL res 112 128 R90
WINDOW 0 0 56 VBottom 2
WINDOW 3 32 56 VTop 2
SYMATTR InstName R3
SYMATTR Value 100k
SYMBOL res -480 -64 R180
WINDOW 0 36 76 Left 2
WINDOW 3 36 40 Left 2
SYMATTR InstName R4
SYMATTR Value 2.2k
SYMBOL res -480 48 R180
WINDOW 0 36 76 Left 2
WINDOW 3 36 40 Left 2
SYMATTR InstName R5
SYMATTR Value 23.5k
SYMBOL res 272 -64 R180
WINDOW 0 36 76 Left 2
WINDOW 3 36 40 Left 2
SYMATTR InstName R1
SYMATTR Value 2.2k
SYMBOL res 272 48 R180
WINDOW 0 36 76 Left 2
WINDOW 3 36 40 Left 2
SYMATTR InstName R2
SYMATTR Value 39k
SYMBOL cap -704 64 R90
WINDOW 0 0 32 VBottom 2
WINDOW 3 32 32 VTop 2
SYMATTR InstName C1
SYMATTR Value 0.01µ
SYMBOL cap 368 480 R180
WINDOW 0 24 56 Left 2
WINDOW 3 24 8 Left 2
SYMATTR InstName C3
SYMATTR Value 0.1µ
SYMBOL cap -368 480 R0
SYMATTR InstName C2
SYMATTR Value 47µ
TEXT -832 632 Left 2 !.tran 5
